ref_redock.pdbqt
 OpenBabel08302600563D

 24 26  0  0  1  0  0  0  0  0999 V2000
    9.0410   34.4840   60.3560 C   0  0  0  0  0  0  0  0  0  0  0  0
    8.8750   33.3500   59.7120 N   0  0  0  0  0  0  0  0  0  0  0  0
    8.2530   34.9230   61.1670 O   0  0  0  0  0  0  0  0  0  0  0  0
    9.6040   33.0760   59.1110 H   0  0  0  0  0  0  0  0  0  0  0  0
   10.3030   35.2740   60.0160 C   0  0  2  0  0  3  0  0  0  0  0  0
   11.8130   35.0370   61.8580 N   0  0  0  0  0  0  0  0  0  0  0  0
   11.1290   36.1420   62.1930 C   0  0  0  0  0  0  0  0  0  0  0  0
   11.5580   34.5590   60.5000 C   0  0  0  0  0  2  0  0  0  0  0  0
   10.3290   36.5000   60.9480 C   0  0  0  0  0  2  0  0  0  0  0  0
   11.1530   36.7500   63.2280 O   0  0  0  0  0  0  0  0  0  0  0  0
   12.6650   34.4040   62.8350 C   0  0  0  0  0  3  0  0  0  0  0  0
   13.5290   32.1120   63.6010 C   0  0  0  0  0  2  0  0  0  0  0  0
   14.9710   32.6530   63.5860 C   0  0  0  0  0  2  0  0  0  0  0  0
   12.6170   32.8810   62.6370 C   0  0  0  0  0  2  0  0  0  0  0  0
   15.0080   34.1600   63.7720 C   0  0  0  0  0  2  0  0  0  0  0  0
   14.1000   34.9090   62.7700 C   0  0  0  0  0  2  0  0  0  0  0  0
    7.7640   32.4800   59.7890 C   0  0  0  0  0  0  0  0  0  0  0  0
    7.8230   31.4230   60.7520 C   0  0  0  0  0  3  0  0  0  0  0  0
    6.6670   32.5410   58.9360 C   0  0  0  0  0  3  0  0  0  0  0  0
    6.7640   30.5210   60.8120 C   0  0  0  0  0  0  0  0  0  0  0  0
    5.6340   31.6260   59.0040 C   0  0  0  0  0  0  0  0  0  0  0  0
    5.6520   30.6090   59.9520 C   0  0  0  0  0  3  0  0  0  0  0  0
    6.8120   29.2330   62.0290 Cl  0  0  0  0  0  0  0  0  0  0  0  0
    4.2900   31.8150   57.8840 Cl  0  0  0  0  0  0  0  0  0  0  0  0
  1  3  2  0  0  0  0
  2 17  1  0  0  0  0
  2  1  1  0  0  0  0
  4  2  1  0  0  0  0
  5  1  1  1  0  0  0
  5  8  1  0  0  0  0
  5  9  1  0  0  0  0
  6  7  1  0  0  0  0
  6 11  1  0  0  0  0
  7 10  2  0  0  0  0
  8  6  1  0  0  0  0
  9  7  1  0  0  0  0
 13 12  1  0  0  0  0
 13 15  1  0  0  0  0
 14 11  1  0  0  0  0
 14 12  1  0  0  0  0
 16 11  1  0  0  0  0
 16 15  1  0  0  0  0
 17 18  1  0  0  0  0
 18 20  2  0  0  0  0
 19 21  1  0  0  0  0
 19 17  2  0  0  0  0
 20 23  1  0  0  0  0
 21 22  2  0  0  0  0
 22 20  1  0  0  0  0
 24 21  1  0  0  0  0
M  END
>  <MODEL>
18

>  <REMARK>
 VINA RESULT:    -7.839      3.171      7.522
 INTER + INTRA:          -9.340
 INTER:                  -8.618
 INTRA:                  -0.722
 UNBOUND:                -0.126
 SMILES O=C(Nc1cc(Cl)cc(Cl)c1)[C@H]1CC(=O)N(C2CCCCC2)C1
 SMILES IDX 2 1 3 2 1 3 12 5 16 6 14 7 23 8 13 9 15 10 17 11 19 12 20 13
 SMILES IDX 18 14 21 15 22 16 4 17 11 18 5 19 9 20 6 21 8 22 10 23 7 24
 H PARENT 3 4

>  <TORSDO>
F 3

$$$$
