ref_ligand.pdb
 OpenBabel08302600553D

 43 45  0  0  1  0  0  0  0  0999 V2000
    6.4350   29.6680   58.4590 C   0  0  0  0  0  0  0  0  0  0  0  0
    7.2880   30.8320   58.9790 C   0  0  0  0  0  0  0  0  0  0  0  0
    6.7250   32.2140   58.6130 C   0  0  0  0  0  0  0  0  0  0  0  0
    5.2760   32.3390   59.0620 C   0  0  0  0  0  0  0  0  0  0  0  0
    4.4090   31.1870   58.5020 C   0  0  0  0  0  0  0  0  0  0  0  0
    4.9550   29.8150   58.8580 C   0  0  0  0  0  0  0  0  0  0  0  0
    8.6120   33.7010   58.4760 C   0  0  0  0  0  0  0  0  0  0  0  0
    9.2780   34.7220   59.3880 C   0  0  0  0  0  0  0  0  0  0  0  0
    8.7660   34.5000   60.8240 C   0  0  1  0  0  0  0  0  0  0  0  0
    7.4420   33.8120   60.5190 C   0  0  0  0  0  0  0  0  0  0  0  0
    7.5690   33.2360   59.1810 N   0  0  0  0  0  0  0  0  0  0  0  0
    9.7490   33.5490   61.5040 C   0  0  0  0  0  0  0  0  0  0  0  0
   10.8490   34.0920   61.9760 N   0  0  0  0  0  0  0  0  0  0  0  0
    9.4980   32.3640   61.5670 O   0  0  0  0  0  0  0  0  0  0  0  0
    8.9460   33.4130   57.3590 O   0  0  0  0  0  0  0  0  0  0  0  0
   11.9410   33.4240   62.5740 C   0  0  0  0  0  0  0  0  0  0  0  0
   11.8970   32.1090   63.0250 C   0  0  0  0  0  0  0  0  0  0  0  0
   13.0100   31.4740   63.5410 C   0  0  0  0  0  0  0  0  0  0  0  0
   12.8290   29.8140   64.0970 Cl  0  0  0  0  0  0  0  0  0  0  0  0
   14.2240   32.1440   63.6410 C   0  0  0  0  0  0  0  0  0  0  0  0
   14.2920   33.4710   63.1720 C   0  0  0  0  0  0  0  0  0  0  0  0
   13.1870   34.1260   62.6340 C   0  0  0  0  0  0  0  0  0  0  0  0
   15.8280   34.3480   63.2860 Cl  0  0  0  0  0  0  0  0  0  0  0  0
    6.5039   29.6390   57.3916 H   0  0  0  0  0  0  0  0  0  0  0  0
    6.8070   28.7646   58.8953 H   0  0  0  0  0  0  0  0  0  0  0  0
    8.2699   30.7450   58.5628 H   0  0  0  0  0  0  0  0  0  0  0  0
    7.2933   30.7665   60.0470 H   0  0  0  0  0  0  0  0  0  0  0  0
    6.7253   32.3385   57.5503 H   0  0  0  0  0  0  0  0  0  0  0  0
    5.2396   32.3138   60.1311 H   0  0  0  0  0  0  0  0  0  0  0  0
    4.8873   33.2639   58.6900 H   0  0  0  0  0  0  0  0  0  0  0  0
    3.4209   31.2765   58.9026 H   0  0  0  0  0  0  0  0  0  0  0  0
    4.4129   31.2692   57.4352 H   0  0  0  0  0  0  0  0  0  0  0  0
    4.8649   29.6696   59.9142 H   0  0  0  0  0  0  0  0  0  0  0  0
    4.3908   29.0823   58.3197 H   0  0  0  0  0  0  0  0  0  0  0  0
    9.0295   35.7113   59.0648 H   0  0  0  0  0  0  0  0  0  0  0  0
   10.3411   34.6055   59.3551 H   0  0  0  0  0  0  0  0  0  0  0  0
    8.6679   35.3570   61.4571 H   0  0  0  0  0  0  0  0  0  0  0  0
    7.2527   33.0410   61.2364 H   0  0  0  0  0  0  0  0  0  0  0  0
    6.6276   34.5045   60.5653 H   0  0  0  0  0  0  0  0  0  0  0  0
   10.9198   35.0714   61.9051 H   0  0  0  0  0  0  0  0  0  0  0  0
   11.0055   31.5918   62.9725 H   0  0  0  0  0  0  0  0  0  0  0  0
   15.0526   31.6822   64.0475 H   0  0  0  0  0  0  0  0  0  0  0  0
   13.2647   35.0947   62.2868 H   0  0  0  0  0  0  0  0  0  0  0  0
  1  6  1  0  0  0  0
  1  2  1  0  0  0  0
  1 24  1  0  0  0  0
  1 25  1  0  0  0  0
  2 26  1  0  0  0  0
  2 27  1  0  0  0  0
  3  2  1  0  0  0  0
  3  4  1  0  0  0  0
  3 11  1  0  0  0  0
  3 28  1  0  0  0  0
  4 29  1  0  0  0  0
  4 30  1  0  0  0  0
  5  6  1  0  0  0  0
  5  4  1  0  0  0  0
  5 31  1  0  0  0  0
  5 32  1  0  0  0  0
  6 33  1  0  0  0  0
  6 34  1  0  0  0  0
  7 11  1  0  0  0  0
  7  8  1  0  0  0  0
  8  9  1  0  0  0  0
  8 35  1  0  0  0  0
  8 36  1  0  0  0  0
  9 12  1  0  0  0  0
  9 37  1  1  0  0  0
 10  9  1  0  0  0  0
 10 38  1  0  0  0  0
 10 39  1  0  0  0  0
 11 10  1  0  0  0  0
 12 14  2  0  0  0  0
 12 13  1  0  0  0  0
 13 16  1  0  0  0  0
 13 40  1  0  0  0  0
 15  7  2  0  0  0  0
 16 22  2  0  0  0  0
 16 17  1  0  0  0  0
 17 18  2  0  0  0  0
 17 41  1  0  0  0  0
 18 20  1  0  0  0  0
 18 19  1  0  0  0  0
 20 42  1  0  0  0  0
 21 23  1  0  0  0  0
 21 20  2  0  0  0  0
 22 21  1  0  0  0  0
 22 43  1  0  0  0  0
M  END
$$$$
