ref_redock.pdbqt
 OpenBabel08302600563D

 24 26  0  0  1  0  0  0  0  0999 V2000
    6.7370   30.0030   59.9540 C   0  0  0  0  0  0  0  0  0  0  0  0
    5.6770   29.2560   59.7380 N   0  0  0  0  0  0  0  0  0  0  0  0
    7.3550   30.0140   60.9980 O   0  0  0  0  0  0  0  0  0  0  0  0
    5.2860   29.3010   58.8360 H   0  0  0  0  0  0  0  0  0  0  0  0
    7.1670   30.9110   58.8040 C   0  0  2  0  0  3  0  0  0  0  0  0
    8.0860   32.9000   59.7700 N   0  0  0  0  0  0  0  0  0  0  0  0
    6.7920   33.2240   59.6320 C   0  0  0  0  0  0  0  0  0  0  0  0
    8.4640   31.6430   59.1250 C   0  0  0  0  0  2  0  0  0  0  0  0
    6.1950   32.1060   58.7890 C   0  0  0  0  0  2  0  0  0  0  0  0
    6.2170   34.1940   60.0460 O   0  0  0  0  0  0  0  0  0  0  0  0
    8.9530   33.7460   60.5520 C   0  0  0  0  0  3  0  0  0  0  0  0
   10.9750   33.6830   62.1330 C   0  0  0  0  0  2  0  0  0  0  0  0
   11.6570   34.7840   61.2990 C   0  0  0  0  0  2  0  0  0  0  0  0
    9.9710   32.8740   61.3020 C   0  0  0  0  0  2  0  0  0  0  0  0
   10.6450   35.6360   60.5530 C   0  0  0  0  0  2  0  0  0  0  0  0
    9.6640   34.7920   59.7050 C   0  0  0  0  0  2  0  0  0  0  0  0
    5.0370   28.3970   60.6580 C   0  0  0  0  0  0  0  0  0  0  0  0
    5.6320   27.1150   60.8830 C   0  0  0  0  0  3  0  0  0  0  0  0
    3.8300   28.6880   61.2860 C   0  0  0  0  0  3  0  0  0  0  0  0
    4.9930   26.2290   61.7470 C   0  0  0  0  0  0  0  0  0  0  0  0
    3.2060   27.7870   62.1280 C   0  0  0  0  0  0  0  0  0  0  0  0
    3.7800   26.5490   62.3890 C   0  0  0  0  0  3  0  0  0  0  0  0
    5.7460   24.6550   62.0610 Cl  0  0  0  0  0  0  0  0  0  0  0  0
    1.6910   28.2740   62.8800 Cl  0  0  0  0  0  0  0  0  0  0  0  0
  1  3  2  0  0  0  0
  2  1  1  0  0  0  0
  2 17  1  0  0  0  0
  4  2  1  0  0  0  0
  5  8  1  0  0  0  0
  5  1  1  1  0  0  0
  6 11  1  0  0  0  0
  7  6  1  0  0  0  0
  7 10  2  0  0  0  0
  8  6  1  0  0  0  0
  9  5  1  0  0  0  0
  9  7  1  0  0  0  0
 11 14  1  0  0  0  0
 13 12  1  0  0  0  0
 14 12  1  0  0  0  0
 15 13  1  0  0  0  0
 16 11  1  0  0  0  0
 16 15  1  0  0  0  0
 17 18  2  0  0  0  0
 17 19  1  0  0  0  0
 18 20  1  0  0  0  0
 19 21  2  0  0  0  0
 20 23  1  0  0  0  0
 20 22  2  0  0  0  0
 21 22  1  0  0  0  0
 21 24  1  0  0  0  0
M  END
>  <MODEL>
11

>  <REMARK>
 VINA RESULT:    -8.334      4.087      7.758
 INTER + INTRA:          -9.922
 INTER:                  -9.242
 INTRA:                  -0.681
 UNBOUND:                -0.126
 SMILES O=C(Nc1cc(Cl)cc(Cl)c1)[C@H]1CC(=O)N(C2CCCCC2)C1
 SMILES IDX 2 1 3 2 1 3 12 5 16 6 14 7 23 8 13 9 15 10 17 11 19 12 20 13
 SMILES IDX 18 14 21 15 22 16 4 17 11 18 5 19 9 20 6 21 8 22 10 23 7 24
 H PARENT 3 4

>  <TORSDO>
F 3

$$$$
