ref_redock.pdbqt
 OpenBabel08302600563D

 24 26  0  0  1  0  0  0  0  0999 V2000
    9.2510   33.8800   60.5760 C   0  0  0  0  0  0  0  0  0  0  0  0
    9.5270   33.0530   61.5590 N   0  0  0  0  0  0  0  0  0  0  0  0
   10.0770   34.5770   60.0250 O   0  0  0  0  0  0  0  0  0  0  0  0
    8.7800   32.5070   61.8960 H   0  0  0  0  0  0  0  0  0  0  0  0
    7.7860   33.9520   60.1470 C   0  0  2  0  0  3  0  0  0  0  0  0
    6.9990   31.7040   59.9100 N   0  0  0  0  0  0  0  0  0  0  0  0
    7.4450   31.9800   58.6740 C   0  0  0  0  0  0  0  0  0  0  0  0
    6.9560   32.8590   60.8060 C   0  0  0  0  0  2  0  0  0  0  0  0
    7.7240   33.4770   58.6830 C   0  0  0  0  0  2  0  0  0  0  0  0
    7.5730   31.2330   57.7430 O   0  0  0  0  0  0  0  0  0  0  0  0
    6.6630   30.3460   60.2580 C   0  0  0  0  0  3  0  0  0  0  0  0
    6.8930   28.6110   62.1360 C   0  0  0  0  0  2  0  0  0  0  0  0
    5.3840   28.3190   62.0490 C   0  0  0  0  0  2  0  0  0  0  0  0
    7.2340   30.0240   61.6480 C   0  0  0  0  0  2  0  0  0  0  0  0
    4.8250   28.6490   60.6750 C   0  0  0  0  0  2  0  0  0  0  0  0
    5.1630   30.0890   60.2220 C   0  0  0  0  0  2  0  0  0  0  0  0
   10.7790   32.8610   62.1860 C   0  0  0  0  0  0  0  0  0  0  0  0
   11.7230   33.9340   62.1080 C   0  0  0  0  0  3  0  0  0  0  0  0
   11.1720   31.6730   62.7930 C   0  0  0  0  0  3  0  0  0  0  0  0
   12.9830   33.7510   62.6730 C   0  0  0  0  0  0  0  0  0  0  0  0
   12.4320   31.5080   63.3330 C   0  0  0  0  0  0  0  0  0  0  0  0
   13.3570   32.5460   63.3000 C   0  0  0  0  0  3  0  0  0  0  0  0
   14.1430   35.0890   62.6150 Cl  0  0  0  0  0  0  0  0  0  0  0  0
   12.8100   29.9650   64.0920 Cl  0  0  0  0  0  0  0  0  0  0  0  0
  1  2  1  0  0  0  0
  2  4  1  0  0  0  0
  2 17  1  0  0  0  0
  3  1  2  0  0  0  0
  5  1  1  1  0  0  0
  5  8  1  0  0  0  0
  6 11  1  0  0  0  0
  6  8  1  0  0  0  0
  7  9  1  0  0  0  0
  7  6  1  0  0  0  0
  9  5  1  0  0  0  0
 10  7  2  0  0  0  0
 11 14  1  0  0  0  0
 13 12  1  0  0  0  0
 14 12  1  0  0  0  0
 15 13  1  0  0  0  0
 16 11  1  0  0  0  0
 16 15  1  0  0  0  0
 17 19  1  0  0  0  0
 18 17  2  0  0  0  0
 18 20  1  0  0  0  0
 19 21  2  0  0  0  0
 20 22  2  0  0  0  0
 21 24  1  0  0  0  0
 22 21  1  0  0  0  0
 23 20  1  0  0  0  0
M  END
>  <MODEL>
12

>  <REMARK>
 VINA RESULT:    -8.061      1.712      2.026
 INTER + INTRA:          -9.601
 INTER:                  -9.359
 INTRA:                  -0.242
 UNBOUND:                -0.126
 SMILES O=C(Nc1cc(Cl)cc(Cl)c1)[C@H]1CC(=O)N(C2CCCCC2)C1
 SMILES IDX 2 1 3 2 1 3 12 5 16 6 14 7 23 8 13 9 15 10 17 11 19 12 20 13
 SMILES IDX 18 14 21 15 22 16 4 17 11 18 5 19 9 20 6 21 8 22 10 23 7 24
 H PARENT 3 4

>  <TORSDO>
F 3

$$$$
