ref_redock.pdbqt
 OpenBabel08302600563D

 24 26  0  0  1  0  0  0  0  0999 V2000
    6.9520   30.7180   58.8720 C   0  0  0  0  0  0  0  0  0  0  0  0
    5.8290   30.5100   59.5230 N   0  0  0  0  0  0  0  0  0  0  0  0
    7.8480   29.9050   58.7920 O   0  0  0  0  0  0  0  0  0  0  0  0
    5.1570   31.2290   59.4790 H   0  0  0  0  0  0  0  0  0  0  0  0
    7.1040   32.0870   58.2100 C   0  0  2  0  0  3  0  0  0  0  0  0
    8.1010   33.5520   59.8190 N   0  0  0  0  0  0  0  0  0  0  0  0
    6.7900   33.7310   60.0460 C   0  0  0  0  0  0  0  0  0  0  0  0
    8.4020   32.7670   58.6230 C   0  0  0  0  0  2  0  0  0  0  0  0
    6.0920   33.0280   58.8910 C   0  0  0  0  0  2  0  0  0  0  0  0
    6.2640   34.3370   60.9400 O   0  0  0  0  0  0  0  0  0  0  0  0
    9.0640   34.0760   60.7560 C   0  0  0  0  0  3  0  0  0  0  0  0
   11.0150   33.3800   62.2710 C   0  0  0  0  0  2  0  0  0  0  0  0
   11.8730   34.5170   61.6850 C   0  0  0  0  0  2  0  0  0  0  0  0
    9.9240   32.9230   61.2960 C   0  0  0  0  0  2  0  0  0  0  0  0
   11.0150   35.6480   61.1450 C   0  0  0  0  0  2  0  0  0  0  0  0
    9.9410   35.1590   60.1450 C   0  0  0  0  0  2  0  0  0  0  0  0
    5.4800   29.3680   60.2780 C   0  0  0  0  0  0  0  0  0  0  0  0
    4.2860   28.6730   59.9030 C   0  0  0  0  0  3  0  0  0  0  0  0
    6.1750   28.9360   61.4030 C   0  0  0  0  0  3  0  0  0  0  0  0
    3.8920   27.5740   60.6630 C   0  0  0  0  0  0  0  0  0  0  0  0
    5.7570   27.8530   62.1510 C   0  0  0  0  0  0  0  0  0  0  0  0
    4.6190   27.1400   61.7890 C   0  0  0  0  0  3  0  0  0  0  0  0
    2.4370   26.6840   60.1800 Cl  0  0  0  0  0  0  0  0  0  0  0  0
    6.7270   27.3880   63.5430 Cl  0  0  0  0  0  0  0  0  0  0  0  0
  1  2  1  0  0  0  0
  2 17  1  0  0  0  0
  3  1  2  0  0  0  0
  4  2  1  0  0  0  0
  5  8  1  0  0  0  0
  5  1  1  1  0  0  0
  5  9  1  0  0  0  0
  6  7  1  0  0  0  0
  6 11  1  0  0  0  0
  7 10  2  0  0  0  0
  8  6  1  0  0  0  0
  9  7  1  0  0  0  0
 11 14  1  0  0  0  0
 13 12  1  0  0  0  0
 14 12  1  0  0  0  0
 15 13  1  0  0  0  0
 16 11  1  0  0  0  0
 16 15  1  0  0  0  0
 17 19  1  0  0  0  0
 18 17  2  0  0  0  0
 18 20  1  0  0  0  0
 19 21  2  0  0  0  0
 20 22  2  0  0  0  0
 21 24  1  0  0  0  0
 22 21  1  0  0  0  0
 23 20  1  0  0  0  0
M  END
>  <MODEL>
5

>  <REMARK>
 VINA RESULT:    -8.865      3.467      7.400
 INTER + INTRA:         -10.546
 INTER:                  -9.836
 INTRA:                  -0.710
 UNBOUND:                -0.126
 SMILES O=C(Nc1cc(Cl)cc(Cl)c1)[C@H]1CC(=O)N(C2CCCCC2)C1
 SMILES IDX 2 1 3 2 1 3 12 5 16 6 14 7 23 8 13 9 15 10 17 11 19 12 20 13
 SMILES IDX 18 14 21 15 22 16 4 17 11 18 5 19 9 20 6 21 8 22 10 23 7 24
 H PARENT 3 4

>  <TORSDO>
F 3

$$$$
