ref_redock.pdbqt
 OpenBabel08302600563D

 24 26  0  0  1  0  0  0  0  0999 V2000
    5.8770   28.6080   59.3520 C   0  0  0  0  0  0  0  0  0  0  0  0
    5.0460   28.3140   60.3280 N   0  0  0  0  0  0  0  0  0  0  0  0
    6.8820   27.9750   59.1050 O   0  0  0  0  0  0  0  0  0  0  0  0
    4.2420   28.8760   60.4020 H   0  0  0  0  0  0  0  0  0  0  0  0
    5.5300   29.8410   58.5200 C   0  0  2  0  0  3  0  0  0  0  0  0
    6.9950   31.6040   59.2070 N   0  0  0  0  0  0  0  0  0  0  0  0
    5.9440   31.7750   60.0230 C   0  0  0  0  0  0  0  0  0  0  0  0
    6.7760   30.6290   58.1390 C   0  0  0  0  0  2  0  0  0  0  0  0
    4.8660   30.8530   59.4730 C   0  0  0  0  0  2  0  0  0  0  0  0
    5.8440   32.5120   60.9660 O   0  0  0  0  0  0  0  0  0  0  0  0
    8.2200   32.3210   59.4630 C   0  0  0  0  0  3  0  0  0  0  0  0
    9.3070   34.6360   59.2430 C   0  0  0  0  0  2  0  0  0  0  0  0
    9.7530   34.5640   60.7150 C   0  0  0  0  0  2  0  0  0  0  0  0
    8.0700   33.7700   58.9750 C   0  0  0  0  0  2  0  0  0  0  0  0
    9.8900   33.1280   61.1930 C   0  0  0  0  0  2  0  0  0  0  0  0
    8.6170   32.2880   60.9320 C   0  0  0  0  0  2  0  0  0  0  0  0
    5.1830   27.2800   61.2810 C   0  0  0  0  0  0  0  0  0  0  0  0
    5.5320   27.6610   62.6160 C   0  0  0  0  0  3  0  0  0  0  0  0
    5.0810   25.9260   60.9810 C   0  0  0  0  0  3  0  0  0  0  0  0
    5.7230   26.6570   63.5630 C   0  0  0  0  0  0  0  0  0  0  0  0
    5.2900   24.9470   61.9330 C   0  0  0  0  0  0  0  0  0  0  0  0
    5.5980   25.2900   63.2450 C   0  0  0  0  0  3  0  0  0  0  0  0
    6.1160   27.1220   65.2270 Cl  0  0  0  0  0  0  0  0  0  0  0  0
    5.1170   23.2670   61.4400 Cl  0  0  0  0  0  0  0  0  0  0  0  0
  1  2  1  0  0  0  0
  2  4  1  0  0  0  0
  2 17  1  0  0  0  0
  3  1  2  0  0  0  0
  5  1  1  1  0  0  0
  5  9  1  0  0  0  0
  6 11  1  0  0  0  0
  6  7  1  0  0  0  0
  7 10  2  0  0  0  0
  8  5  1  0  0  0  0
  8  6  1  0  0  0  0
  9  7  1  0  0  0  0
 11 16  1  0  0  0  0
 12 13  1  0  0  0  0
 13 15  1  0  0  0  0
 14 12  1  0  0  0  0
 14 11  1  0  0  0  0
 16 15  1  0  0  0  0
 17 18  1  0  0  0  0
 18 20  2  0  0  0  0
 19 17  2  0  0  0  0
 19 21  1  0  0  0  0
 20 23  1  0  0  0  0
 21 22  2  0  0  0  0
 22 20  1  0  0  0  0
 24 21  1  0  0  0  0
M  END
>  <MODEL>
14

>  <REMARK>
 VINA RESULT:    -8.028      4.182      7.519
 INTER + INTRA:          -9.562
 INTER:                  -9.430
 INTRA:                  -0.132
 UNBOUND:                -0.126
 SMILES O=C(Nc1cc(Cl)cc(Cl)c1)[C@H]1CC(=O)N(C2CCCCC2)C1
 SMILES IDX 2 1 3 2 1 3 12 5 16 6 14 7 23 8 13 9 15 10 17 11 19 12 20 13
 SMILES IDX 18 14 21 15 22 16 4 17 11 18 5 19 9 20 6 21 8 22 10 23 7 24
 H PARENT 3 4

>  <TORSDO>
F 3

$$$$
