ref_redock.pdbqt
 OpenBabel08302600563D

 24 26  0  0  1  0  0  0  0  0999 V2000
    8.7720   32.5540   60.6930 C   0  0  0  0  0  0  0  0  0  0  0  0
    9.3170   32.9790   61.8110 N   0  0  0  0  0  0  0  0  0  0  0  0
    9.3560   31.8880   59.8650 O   0  0  0  0  0  0  0  0  0  0  0  0
    8.7290   33.4740   62.4250 H   0  0  0  0  0  0  0  0  0  0  0  0
    7.3210   32.9670   60.4520 C   0  0  2  0  0  3  0  0  0  0  0  0
    6.2250   31.1300   59.3770 N   0  0  0  0  0  0  0  0  0  0  0  0
    6.6720   31.8440   58.3320 C   0  0  0  0  0  0  0  0  0  0  0  0
    6.3650   31.8010   60.6690 C   0  0  0  0  0  2  0  0  0  0  0  0
    7.1550   33.1570   58.9320 C   0  0  0  0  0  2  0  0  0  0  0  0
    6.6720   31.5450   57.1690 O   0  0  0  0  0  0  0  0  0  0  0  0
    5.7140   29.7990   59.1630 C   0  0  0  0  0  3  0  0  0  0  0  0
    5.8470   27.3990   60.0640 C   0  0  0  0  0  2  0  0  0  0  0  0
    4.3100   27.3290   60.0980 C   0  0  0  0  0  2  0  0  0  0  0  0
    6.3590   28.8410   60.1760 C   0  0  0  0  0  2  0  0  0  0  0  0
    3.6800   28.2860   59.1010 C   0  0  0  0  0  2  0  0  0  0  0  0
    4.1960   29.7360   59.2560 C   0  0  0  0  0  2  0  0  0  0  0  0
   10.6560   32.8010   62.2280 C   0  0  0  0  0  0  0  0  0  0  0  0
   10.9910   31.5530   62.8450 C   0  0  0  0  0  3  0  0  0  0  0  0
   11.6330   33.7880   62.1510 C   0  0  0  0  0  3  0  0  0  0  0  0
   12.2910   31.3720   63.3110 C   0  0  0  0  0  0  0  0  0  0  0  0
   12.9120   33.5910   62.6340 C   0  0  0  0  0  0  0  0  0  0  0  0
   13.2730   32.3770   63.2080 C   0  0  0  0  0  3  0  0  0  0  0  0
   12.7230   29.8160   64.0400 Cl  0  0  0  0  0  0  0  0  0  0  0  0
   14.0690   34.9070   62.4650 Cl  0  0  0  0  0  0  0  0  0  0  0  0
  1  2  1  0  0  0  0
  2 17  1  0  0  0  0
  2  4  1  0  0  0  0
  3  1  2  0  0  0  0
  5  8  1  0  0  0  0
  5  1  1  6  0  0  0
  6  8  1  0  0  0  0
  7  9  1  0  0  0  0
  7  6  1  0  0  0  0
  9  5  1  0  0  0  0
 10  7  2  0  0  0  0
 11 16  1  0  0  0  0
 11  6  1  0  0  0  0
 11 14  1  0  0  0  0
 12 13  1  0  0  0  0
 12 14  1  0  0  0  0
 15 16  1  0  0  0  0
 15 13  1  0  0  0  0
 17 18  1  0  0  0  0
 18 20  2  0  0  0  0
 19 17  2  0  0  0  0
 19 21  1  0  0  0  0
 20 23  1  0  0  0  0
 21 22  2  0  0  0  0
 22 20  1  0  0  0  0
 24 21  1  0  0  0  0
M  END
>  <MODEL>
17

>  <REMARK>
 VINA RESULT:    -7.905      1.579      2.773
 INTER + INTRA:          -9.417
 INTER:                  -8.953
 INTRA:                  -0.464
 UNBOUND:                -0.126
 SMILES O=C(Nc1cc(Cl)cc(Cl)c1)[C@H]1CC(=O)N(C2CCCCC2)C1
 SMILES IDX 2 1 3 2 1 3 12 5 16 6 14 7 23 8 13 9 15 10 17 11 19 12 20 13
 SMILES IDX 18 14 21 15 22 16 4 17 11 18 5 19 9 20 6 21 8 22 10 23 7 24
 H PARENT 3 4

>  <TORSDO>
F 3

$$$$
