ref_redock.pdbqt
 OpenBabel08302600563D

 24 26  0  0  1  0  0  0  0  0999 V2000
    5.9750   28.5310   59.3850 C   0  0  0  0  0  0  0  0  0  0  0  0
    5.1910   28.3060   60.4150 N   0  0  0  0  0  0  0  0  0  0  0  0
    6.9470   27.8580   59.1140 O   0  0  0  0  0  0  0  0  0  0  0  0
    4.4070   28.8940   60.5070 H   0  0  0  0  0  0  0  0  0  0  0  0
    5.6170   29.7350   58.5160 C   0  0  2  0  0  3  0  0  0  0  0  0
    7.0330   31.5460   59.1850 N   0  0  0  0  0  0  0  0  0  0  0  0
    5.9640   31.7140   59.9790 C   0  0  0  0  0  0  0  0  0  0  0  0
    6.8530   30.5400   58.1380 C   0  0  0  0  0  2  0  0  0  0  0  0
    4.9150   30.7560   59.4320 C   0  0  0  0  0  2  0  0  0  0  0  0
    5.8310   32.4710   60.9020 O   0  0  0  0  0  0  0  0  0  0  0  0
    8.2380   32.2940   59.4450 C   0  0  0  0  0  3  0  0  0  0  0  0
    9.2830   34.6240   59.1800 C   0  0  0  0  0  2  0  0  0  0  0  0
    9.7000   34.6030   60.6620 C   0  0  0  0  0  2  0  0  0  0  0  0
    8.0690   33.7260   58.9130 C   0  0  0  0  0  2  0  0  0  0  0  0
    9.8550   33.1850   61.1840 C   0  0  0  0  0  2  0  0  0  0  0  0
    8.6050   32.3110   60.9220 C   0  0  0  0  0  2  0  0  0  0  0  0
    5.3510   27.3110   61.4070 C   0  0  0  0  0  0  0  0  0  0  0  0
    5.1190   25.9530   61.0180 C   0  0  0  0  0  3  0  0  0  0  0  0
    5.6330   27.5810   62.7420 C   0  0  0  0  0  3  0  0  0  0  0  0
    5.2200   24.9590   61.9880 C   0  0  0  0  0  0  0  0  0  0  0  0
    5.7120   26.5800   63.6900 C   0  0  0  0  0  0  0  0  0  0  0  0
    5.5240   25.2500   63.3330 C   0  0  0  0  0  3  0  0  0  0  0  0
    4.9740   23.2720   61.5050 Cl  0  0  0  0  0  0  0  0  0  0  0  0
    6.0930   27.0410   65.3460 Cl  0  0  0  0  0  0  0  0  0  0  0  0
  1  2  1  0  0  0  0
  2  4  1  0  0  0  0
  2 17  1  0  0  0  0
  3  1  2  0  0  0  0
  5  1  1  1  0  0  0
  5  9  1  0  0  0  0
  6 11  1  0  0  0  0
  6  7  1  0  0  0  0
  7 10  2  0  0  0  0
  8  5  1  0  0  0  0
  8  6  1  0  0  0  0
  9  7  1  0  0  0  0
 11 16  1  0  0  0  0
 12 13  1  0  0  0  0
 13 15  1  0  0  0  0
 14 12  1  0  0  0  0
 14 11  1  0  0  0  0
 16 15  1  0  0  0  0
 17 19  1  0  0  0  0
 18 17  2  0  0  0  0
 18 20  1  0  0  0  0
 19 21  2  0  0  0  0
 20 22  2  0  0  0  0
 21 24  1  0  0  0  0
 22 21  1  0  0  0  0
 23 20  1  0  0  0  0
M  END
>  <MODEL>
16

>  <REMARK>
 VINA RESULT:    -7.948      4.222      7.676
 INTER + INTRA:          -9.468
 INTER:                  -9.397
 INTRA:                  -0.071
 UNBOUND:                -0.126
 SMILES O=C(Nc1cc(Cl)cc(Cl)c1)[C@H]1CC(=O)N(C2CCCCC2)C1
 SMILES IDX 2 1 3 2 1 3 12 5 16 6 14 7 23 8 13 9 15 10 17 11 19 12 20 13
 SMILES IDX 18 14 21 15 22 16 4 17 11 18 5 19 9 20 6 21 8 22 10 23 7 24
 H PARENT 3 4

>  <TORSDO>
F 3

$$$$
