ref_redock.pdbqt
 OpenBabel08302600563D

 24 26  0  0  1  0  0  0  0  0999 V2000
    6.3670   32.8670   59.3490 C   0  0  0  0  0  0  0  0  0  0  0  0
    7.6630   32.7650   59.1520 N   0  0  0  0  0  0  0  0  0  0  0  0
    5.8690   33.4650   60.2800 O   0  0  0  0  0  0  0  0  0  0  0  0
    7.9470   32.2910   58.3380 H   0  0  0  0  0  0  0  0  0  0  0  0
    5.4730   32.1580   58.3340 C   0  0  2  0  0  3  0  0  0  0  0  0
    5.2840   29.8730   59.0230 N   0  0  0  0  0  0  0  0  0  0  0  0
    6.3510   29.8360   58.2110 C   0  0  0  0  0  0  0  0  0  0  0  0
    4.5590   31.1430   59.0080 C   0  0  0  0  0  2  0  0  0  0  0  0
    6.3770   31.2000   57.5340 C   0  0  0  0  0  2  0  0  0  0  0  0
    7.1130   28.9280   58.0200 O   0  0  0  0  0  0  0  0  0  0  0  0
    4.9790   28.7310   59.8500 C   0  0  0  0  0  3  0  0  0  0  0  0
    4.5410   28.0400   62.2830 C   0  0  0  0  0  2  0  0  0  0  0  0
    3.2690   27.2940   61.8390 C   0  0  0  0  0  2  0  0  0  0  0  0
    4.9060   29.1760   61.3190 C   0  0  0  0  0  2  0  0  0  0  0  0
    3.3450   26.8670   60.3830 C   0  0  0  0  0  2  0  0  0  0  0  0
    3.6890   28.0390   59.4340 C   0  0  0  0  0  2  0  0  0  0  0  0
    8.6930   33.2600   59.9830 C   0  0  0  0  0  0  0  0  0  0  0  0
    9.2160   32.3750   60.9790 C   0  0  0  0  0  3  0  0  0  0  0  0
    9.1640   34.5680   59.9440 C   0  0  0  0  0  3  0  0  0  0  0  0
   10.1960   32.8550   61.8440 C   0  0  0  0  0  0  0  0  0  0  0  0
   10.1260   35.0270   60.8220 C   0  0  0  0  0  0  0  0  0  0  0  0
   10.6740   34.1790   61.7780 C   0  0  0  0  0  3  0  0  0  0  0  0
   10.8760   31.7530   63.0540 Cl  0  0  0  0  0  0  0  0  0  0  0  0
   10.6560   36.6980   60.6660 Cl  0  0  0  0  0  0  0  0  0  0  0  0
  1  3  2  0  0  0  0
  2  1  1  0  0  0  0
  2 17  1  0  0  0  0
  4  2  1  0  0  0  0
  5  8  1  0  0  0  0
  5  1  1  1  0  0  0
  6 11  1  0  0  0  0
  7  6  1  0  0  0  0
  8  6  1  0  0  0  0
  9  7  1  0  0  0  0
  9  5  1  0  0  0  0
 10  7  2  0  0  0  0
 11 14  1  0  0  0  0
 13 12  1  0  0  0  0
 14 12  1  0  0  0  0
 15 13  1  0  0  0  0
 16 11  1  0  0  0  0
 16 15  1  0  0  0  0
 17 18  1  0  0  0  0
 18 20  2  0  0  0  0
 19 17  2  0  0  0  0
 19 21  1  0  0  0  0
 20 23  1  0  0  0  0
 21 22  2  0  0  0  0
 22 20  1  0  0  0  0
 24 21  1  0  0  0  0
M  END
>  <MODEL>
7

>  <REMARK>
 VINA RESULT:    -8.692      2.693      4.609
 INTER + INTRA:         -10.343
 INTER:                  -9.542
 INTRA:                  -0.801
 UNBOUND:                -0.126
 SMILES O=C(Nc1cc(Cl)cc(Cl)c1)[C@H]1CC(=O)N(C2CCCCC2)C1
 SMILES IDX 2 1 3 2 1 3 12 5 16 6 14 7 23 8 13 9 15 10 17 11 19 12 20 13
 SMILES IDX 18 14 21 15 22 16 4 17 11 18 5 19 9 20 6 21 8 22 10 23 7 24
 H PARENT 3 4

>  <TORSDO>
F 3

$$$$
