ref_redock.pdbqt
 OpenBabel08302600563D

 24 26  0  0  1  0  0  0  0  0999 V2000
    6.1710   31.6840   60.7970 C   0  0  0  0  0  0  0  0  0  0  0  0
    7.2650   31.9500   60.1180 N   0  0  0  0  0  0  0  0  0  0  0  0
    5.9970   32.0040   61.9540 O   0  0  0  0  0  0  0  0  0  0  0  0
    7.2710   31.6770   59.1720 H   0  0  0  0  0  0  0  0  0  0  0  0
    5.0890   30.9040   60.0520 C   0  0  2  0  0  3  0  0  0  0  0  0
    5.3460   28.5950   60.6300 N   0  0  0  0  0  0  0  0  0  0  0  0
    6.1170   28.7020   59.5360 C   0  0  0  0  0  0  0  0  0  0  0  0
    4.5260   29.7740   60.9050 C   0  0  0  0  0  2  0  0  0  0  0  0
    5.8000   30.0770   58.9650 C   0  0  0  0  0  2  0  0  0  0  0  0
    6.8730   27.8910   59.0740 O   0  0  0  0  0  0  0  0  0  0  0  0
    5.4210   27.4050   61.4400 C   0  0  0  0  0  3  0  0  0  0  0  0
    6.4940   26.4580   63.5710 C   0  0  0  0  0  2  0  0  0  0  0  0
    5.1160   25.9590   64.0410 C   0  0  0  0  0  2  0  0  0  0  0  0
    6.3770   27.6530   62.6170 C   0  0  0  0  0  2  0  0  0  0  0  0
    4.1730   25.7250   62.8730 C   0  0  0  0  0  2  0  0  0  0  0  0
    4.0560   26.9560   61.9440 C   0  0  0  0  0  2  0  0  0  0  0  0
    8.4330   32.5840   60.5980 C   0  0  0  0  0  0  0  0  0  0  0  0
    9.1780   31.9050   61.6130 C   0  0  0  0  0  3  0  0  0  0  0  0
    8.8470   33.8520   60.2050 C   0  0  0  0  0  3  0  0  0  0  0  0
   10.3050   32.5320   62.1400 C   0  0  0  0  0  0  0  0  0  0  0  0
    9.9600   34.4610   60.7520 C   0  0  0  0  0  0  0  0  0  0  0  0
   10.7210   33.8100   61.7160 C   0  0  0  0  0  3  0  0  0  0  0  0
   11.2560   31.6790   63.3690 Cl  0  0  0  0  0  0  0  0  0  0  0  0
   10.3980   36.0610   60.1630 Cl  0  0  0  0  0  0  0  0  0  0  0  0
  1  3  2  0  0  0  0
  2 17  1  0  0  0  0
  2  1  1  0  0  0  0
  4  2  1  0  0  0  0
  5  1  1  1  0  0  0
  5  8  1  0  0  0  0
  6  8  1  0  0  0  0
  6 11  1  0  0  0  0
  7  6  1  0  0  0  0
  9  7  1  0  0  0  0
  9  5  1  0  0  0  0
 10  7  2  0  0  0  0
 11 16  1  0  0  0  0
 11 14  1  0  0  0  0
 12 13  1  0  0  0  0
 14 12  1  0  0  0  0
 15 13  1  0  0  0  0
 16 15  1  0  0  0  0
 17 18  1  0  0  0  0
 18 20  2  0  0  0  0
 19 17  2  0  0  0  0
 19 21  1  0  0  0  0
 20 23  1  0  0  0  0
 21 22  2  0  0  0  0
 22 20  1  0  0  0  0
 24 21  1  0  0  0  0
M  END
>  <MODEL>
13

>  <REMARK>
 VINA RESULT:    -8.053      3.580      5.279
 INTER + INTRA:          -9.592
 INTER:                  -8.852
 INTRA:                  -0.739
 UNBOUND:                -0.126
 SMILES O=C(Nc1cc(Cl)cc(Cl)c1)[C@H]1CC(=O)N(C2CCCCC2)C1
 SMILES IDX 2 1 3 2 1 3 12 5 16 6 14 7 23 8 13 9 15 10 17 11 19 12 20 13
 SMILES IDX 18 14 21 15 22 16 4 17 11 18 5 19 9 20 6 21 8 22 10 23 7 24
 H PARENT 3 4

>  <TORSDO>
F 3

$$$$
