ref_redock.pdbqt
 OpenBabel08302600563D

 24 26  0  0  1  0  0  0  0  0999 V2000
    9.8610   33.5770   61.3150 C   0  0  0  0  0  0  0  0  0  0  0  0
   10.9580   34.1540   61.7510 N   0  0  0  0  0  0  0  0  0  0  0  0
    9.6290   32.3910   61.4260 O   0  0  0  0  0  0  0  0  0  0  0  0
   11.0120   35.1310   61.6420 H   0  0  0  0  0  0  0  0  0  0  0  0
    8.8550   34.4860   60.6110 C   0  0  2  0  0  3  0  0  0  0  0  0
    7.5730   33.1170   59.1230 N   0  0  0  0  0  0  0  0  0  0  0  0
    8.5860   33.5170   58.3390 C   0  0  0  0  0  0  0  0  0  0  0  0
    7.5130   33.7920   60.4190 C   0  0  0  0  0  2  0  0  0  0  0  0
    9.3010   34.5950   59.1410 C   0  0  0  0  0  2  0  0  0  0  0  0
    8.8660   33.1430   57.2320 O   0  0  0  0  0  0  0  0  0  0  0  0
    6.6960   32.0650   58.6720 C   0  0  0  0  0  3  0  0  0  0  0  0
    6.2840   29.5380   58.8600 C   0  0  0  0  0  2  0  0  0  0  0  0
    4.8020   29.8070   59.1820 C   0  0  0  0  0  2  0  0  0  0  0  0
    7.1780   30.7230   59.2450 C   0  0  0  0  0  2  0  0  0  0  0  0
    4.3360   31.1390   58.6210 C   0  0  0  0  0  2  0  0  0  0  0  0
    5.2430   32.3170   59.0470 C   0  0  0  0  0  2  0  0  0  0  0  0
   12.0670   33.5270   62.3600 C   0  0  0  0  0  0  0  0  0  0  0  0
   11.9130   32.1600   62.7560 C   0  0  0  0  0  3  0  0  0  0  0  0
   13.2570   34.1780   62.6710 C   0  0  0  0  0  3  0  0  0  0  0  0
   12.9740   31.5330   63.4050 C   0  0  0  0  0  0  0  0  0  0  0  0
   14.2900   33.5400   63.3290 C   0  0  0  0  0  0  0  0  0  0  0  0
   14.1790   32.2040   63.6950 C   0  0  0  0  0  3  0  0  0  0  0  0
   12.8040   29.8290   63.8620 Cl  0  0  0  0  0  0  0  0  0  0  0  0
   15.7550   34.4610   63.6520 Cl  0  0  0  0  0  0  0  0  0  0  0  0
  1  3  2  0  0  0  0
  1  2  1  0  0  0  0
  2 17  1  0  0  0  0
  4  2  1  0  0  0  0
  5  1  1  1  0  0  0
  6  8  1  0  0  0  0
  7  6  1  0  0  0  0
  7  9  1  0  0  0  0
  8  5  1  0  0  0  0
  9  5  1  0  0  0  0
 10  7  2  0  0  0  0
 11 16  1  0  0  0  0
 11  6  1  0  0  0  0
 11 14  1  0  0  0  0
 12 13  1  0  0  0  0
 12 14  1  0  0  0  0
 15 16  1  0  0  0  0
 15 13  1  0  0  0  0
 17 19  2  0  0  0  0
 17 18  1  0  0  0  0
 18 20  2  0  0  0  0
 19 21  1  0  0  0  0
 20 22  1  0  0  0  0
 20 23  1  0  0  0  0
 21 24  1  0  0  0  0
 21 22  2  0  0  0  0
M  END
>  <MODEL>
2

>  <REMARK>
 VINA RESULT:    -9.516      0.111      1.910
 INTER + INTRA:         -11.311
 INTER:                 -11.359
 INTRA:                   0.049
 UNBOUND:                -0.126
 SMILES O=C(Nc1cc(Cl)cc(Cl)c1)[C@H]1CC(=O)N(C2CCCCC2)C1
 SMILES IDX 2 1 3 2 1 3 12 5 16 6 14 7 23 8 13 9 15 10 17 11 19 12 20 13
 SMILES IDX 18 14 21 15 22 16 4 17 11 18 5 19 9 20 6 21 8 22 10 23 7 24
 H PARENT 3 4

>  <TORSDO>
F 3

$$$$
