ref_redock.pdbqt
 OpenBabel08302600563D

 24 26  0  0  1  0  0  0  0  0999 V2000
    5.7410   29.8750   58.7520 C   0  0  0  0  0  0  0  0  0  0  0  0
    4.7340   29.8280   59.5960 N   0  0  0  0  0  0  0  0  0  0  0  0
    6.5710   28.9980   58.6400 O   0  0  0  0  0  0  0  0  0  0  0  0
    4.1000   30.5810   59.5650 H   0  0  0  0  0  0  0  0  0  0  0  0
    5.8450   31.1360   57.8970 C   0  0  2  0  0  3  0  0  0  0  0  0
    7.4790   32.5580   58.9170 N   0  0  0  0  0  0  0  0  0  0  0  0
    6.3420   32.9670   59.5020 C   0  0  0  0  0  0  0  0  0  0  0  0
    7.2820   31.6310   57.8030 C   0  0  0  0  0  2  0  0  0  0  0  0
    5.2300   32.2860   58.7180 C   0  0  0  0  0  2  0  0  0  0  0  0
    6.2080   33.7270   60.4230 O   0  0  0  0  0  0  0  0  0  0  0  0
    8.7480   33.0010   59.4400 C   0  0  0  0  0  3  0  0  0  0  0  0
   10.2050   35.0920   59.7430 C   0  0  0  0  0  2  0  0  0  0  0  0
   10.4070   34.7330   61.2270 C   0  0  0  0  0  2  0  0  0  0  0  0
    8.9020   34.5080   59.1830 C   0  0  0  0  0  2  0  0  0  0  0  0
   10.2420   33.2430   61.4740 C   0  0  0  0  0  2  0  0  0  0  0  0
    8.9080   32.6900   60.9210 C   0  0  0  0  0  2  0  0  0  0  0  0
    4.4620   28.8160   60.5440 C   0  0  0  0  0  0  0  0  0  0  0  0
    5.2590   28.7990   61.7330 C   0  0  0  0  0  3  0  0  0  0  0  0
    3.5340   27.7990   60.3520 C   0  0  0  0  0  3  0  0  0  0  0  0
    5.0460   27.7820   62.6600 C   0  0  0  0  0  0  0  0  0  0  0  0
    3.3500   26.7900   61.2780 C   0  0  0  0  0  0  0  0  0  0  0  0
    4.0880   26.7690   62.4560 C   0  0  0  0  0  3  0  0  0  0  0  0
    6.0020   27.7770   64.1520 Cl  0  0  0  0  0  0  0  0  0  0  0  0
    2.1340   25.5660   60.9340 Cl  0  0  0  0  0  0  0  0  0  0  0  0
  1  2  1  0  0  0  0
  2 17  1  0  0  0  0
  3  1  2  0  0  0  0
  4  2  1  0  0  0  0
  5  9  1  0  0  0  0
  5  1  1  1  0  0  0
  6 11  1  0  0  0  0
  6  7  1  0  0  0  0
  7 10  2  0  0  0  0
  8  5  1  0  0  0  0
  8  6  1  0  0  0  0
  9  7  1  0  0  0  0
 11 16  1  0  0  0  0
 12 13  1  0  0  0  0
 13 15  1  0  0  0  0
 14 11  1  0  0  0  0
 14 12  1  0  0  0  0
 16 15  1  0  0  0  0
 17 18  1  0  0  0  0
 18 20  2  0  0  0  0
 19 17  2  0  0  0  0
 19 21  1  0  0  0  0
 20 23  1  0  0  0  0
 21 22  2  0  0  0  0
 22 20  1  0  0  0  0
 24 21  1  0  0  0  0
M  END
>  <MODEL>
15

>  <REMARK>
 VINA RESULT:    -7.986      3.805      7.590
 INTER + INTRA:          -9.513
 INTER:                  -9.295
 INTRA:                  -0.218
 UNBOUND:                -0.126
 SMILES O=C(Nc1cc(Cl)cc(Cl)c1)[C@H]1CC(=O)N(C2CCCCC2)C1
 SMILES IDX 2 1 3 2 1 3 12 5 16 6 14 7 23 8 13 9 15 10 17 11 19 12 20 13
 SMILES IDX 18 14 21 15 22 16 4 17 11 18 5 19 9 20 6 21 8 22 10 23 7 24
 H PARENT 3 4

>  <TORSDO>
F 3

$$$$
