ref_redock.pdbqt
 OpenBabel08302600563D

 24 26  0  0  1  0  0  0  0  0999 V2000
    6.8960   30.5940   58.7670 C   0  0  0  0  0  0  0  0  0  0  0  0
    5.8570   30.5370   59.5700 N   0  0  0  0  0  0  0  0  0  0  0  0
    7.6250   29.6530   58.5360 O   0  0  0  0  0  0  0  0  0  0  0  0
    5.3140   31.3550   59.6430 H   0  0  0  0  0  0  0  0  0  0  0  0
    7.1780   31.9510   58.1250 C   0  0  2  0  0  3  0  0  0  0  0  0
    8.1260   33.3580   59.8140 N   0  0  0  0  0  0  0  0  0  0  0  0
    6.8140   33.6130   59.9360 C   0  0  0  0  0  0  0  0  0  0  0  0
    8.4760   32.5560   58.6420 C   0  0  0  0  0  2  0  0  0  0  0  0
    6.1700   32.9500   58.7260 C   0  0  0  0  0  2  0  0  0  0  0  0
    6.2530   34.2480   60.7870 O   0  0  0  0  0  0  0  0  0  0  0  0
    9.0390   33.8270   60.8260 C   0  0  0  0  0  3  0  0  0  0  0  0
   10.9210   33.0460   62.3870 C   0  0  0  0  0  2  0  0  0  0  0  0
   11.7980   34.2210   61.9140 C   0  0  0  0  0  2  0  0  0  0  0  0
    9.8810   32.6460   61.3340 C   0  0  0  0  0  2  0  0  0  0  0  0
   10.9590   35.3800   61.4040 C   0  0  0  0  0  2  0  0  0  0  0  0
    9.9370   34.9490   60.3250 C   0  0  0  0  0  2  0  0  0  0  0  0
    5.4330   29.4310   60.3390 C   0  0  0  0  0  0  0  0  0  0  0  0
    6.2690   29.0310   61.4300 C   0  0  0  0  0  3  0  0  0  0  0  0
    4.3090   28.6650   60.0490 C   0  0  0  0  0  3  0  0  0  0  0  0
    5.9010   27.9110   62.1720 C   0  0  0  0  0  0  0  0  0  0  0  0
    3.9710   27.5490   60.7900 C   0  0  0  0  0  0  0  0  0  0  0  0
    4.7480   27.1590   61.8740 C   0  0  0  0  0  3  0  0  0  0  0  0
    6.9100   27.4340   63.5490 Cl  0  0  0  0  0  0  0  0  0  0  0  0
    2.5150   26.6690   60.3390 Cl  0  0  0  0  0  0  0  0  0  0  0  0
  1  2  1  0  0  0  0
  2  4  1  0  0  0  0
  2 17  1  0  0  0  0
  3  1  2  0  0  0  0
  5  8  1  0  0  0  0
  5  9  1  0  0  0  0
  5  1  1  1  0  0  0
  6  7  1  0  0  0  0
  6 11  1  0  0  0  0
  7 10  2  0  0  0  0
  8  6  1  0  0  0  0
  9  7  1  0  0  0  0
 11 14  1  0  0  0  0
 13 12  1  0  0  0  0
 14 12  1  0  0  0  0
 15 13  1  0  0  0  0
 16 11  1  0  0  0  0
 16 15  1  0  0  0  0
 17 18  1  0  0  0  0
 18 20  2  0  0  0  0
 19 17  2  0  0  0  0
 19 21  1  0  0  0  0
 20 23  1  0  0  0  0
 21 22  2  0  0  0  0
 22 20  1  0  0  0  0
 24 21  1  0  0  0  0
M  END
>  <MODEL>
9

>  <REMARK>
 VINA RESULT:    -8.508      3.443      7.214
 INTER + INTRA:         -10.127
 INTER:                  -9.486
 INTRA:                  -0.641
 UNBOUND:                -0.126
 SMILES O=C(Nc1cc(Cl)cc(Cl)c1)[C@H]1CC(=O)N(C2CCCCC2)C1
 SMILES IDX 2 1 3 2 1 3 12 5 16 6 14 7 23 8 13 9 15 10 17 11 19 12 20 13
 SMILES IDX 18 14 21 15 22 16 4 17 11 18 5 19 9 20 6 21 8 22 10 23 7 24
 H PARENT 3 4

>  <TORSDO>
F 3

$$$$
