ref_redock.pdbqt
 OpenBabel08302600563D

 24 26  0  0  1  0  0  0  0  0999 V2000
    7.8240   32.7550   59.0250 C   0  0  0  0  0  0  0  0  0  0  0  0
    7.9820   32.8470   60.3260 N   0  0  0  0  0  0  0  0  0  0  0  0
    8.6960   32.9970   58.2170 O   0  0  0  0  0  0  0  0  0  0  0  0
    7.2140   32.5830   60.8810 H   0  0  0  0  0  0  0  0  0  0  0  0
    6.4360   32.3360   58.5430 C   0  0  2  0  0  3  0  0  0  0  0  0
    5.9530   30.2040   59.5180 N   0  0  0  0  0  0  0  0  0  0  0  0
    6.5340   29.8600   58.3590 C   0  0  0  0  0  0  0  0  0  0  0  0
    5.6520   31.6300   59.6410 C   0  0  0  0  0  2  0  0  0  0  0  0
    6.6350   31.1590   57.5700 C   0  0  0  0  0  2  0  0  0  0  0  0
    6.8780   28.7700   57.9900 O   0  0  0  0  0  0  0  0  0  0  0  0
    5.7300   29.1990   60.5280 C   0  0  0  0  0  3  0  0  0  0  0  0
    6.7220   28.2300   62.6890 C   0  0  0  0  0  2  0  0  0  0  0  0
    5.3470   28.3540   63.3720 C   0  0  0  0  0  2  0  0  0  0  0  0
    6.8850   29.2350   61.5410 C   0  0  0  0  0  2  0  0  0  0  0  0
    4.2120   28.3280   62.3630 C   0  0  0  0  0  2  0  0  0  0  0  0
    4.3920   29.3690   61.2340 C   0  0  0  0  0  2  0  0  0  0  0  0
    9.1350   33.2850   61.0160 C   0  0  0  0  0  0  0  0  0  0  0  0
    9.4520   34.6790   60.9460 C   0  0  0  0  0  3  0  0  0  0  0  0
   10.0150   32.4360   61.6790 C   0  0  0  0  0  3  0  0  0  0  0  0
   10.6110   35.1280   61.5740 C   0  0  0  0  0  0  0  0  0  0  0  0
   11.1680   32.9020   62.2820 C   0  0  0  0  0  0  0  0  0  0  0  0
   11.4820   34.2560   62.2570 C   0  0  0  0  0  3  0  0  0  0  0  0
   10.9890   36.8590   61.5250 Cl  0  0  0  0  0  0  0  0  0  0  0  0
   12.1960   31.7360   63.1070 Cl  0  0  0  0  0  0  0  0  0  0  0  0
  1  2  1  0  0  0  0
  2  4  1  0  0  0  0
  2 17  1  0  0  0  0
  3  1  2  0  0  0  0
  5  1  1  1  0  0  0
  5  8  1  0  0  0  0
  6  8  1  0  0  0  0
  6 11  1  0  0  0  0
  7  6  1  0  0  0  0
  9  7  1  0  0  0  0
  9  5  1  0  0  0  0
 10  7  2  0  0  0  0
 11 16  1  0  0  0  0
 11 14  1  0  0  0  0
 12 13  1  0  0  0  0
 14 12  1  0  0  0  0
 15 13  1  0  0  0  0
 16 15  1  0  0  0  0
 17 19  1  0  0  0  0
 18 17  2  0  0  0  0
 18 20  1  0  0  0  0
 19 21  2  0  0  0  0
 20 22  2  0  0  0  0
 21 24  1  0  0  0  0
 22 21  1  0  0  0  0
 23 20  1  0  0  0  0
M  END
>  <MODEL>
4

>  <REMARK>
 VINA RESULT:    -8.880      2.581      3.779
 INTER + INTRA:         -10.564
 INTER:                  -9.688
 INTRA:                  -0.876
 UNBOUND:                -0.126
 SMILES O=C(Nc1cc(Cl)cc(Cl)c1)[C@H]1CC(=O)N(C2CCCCC2)C1
 SMILES IDX 2 1 3 2 1 3 12 5 16 6 14 7 23 8 13 9 15 10 17 11 19 12 20 13
 SMILES IDX 18 14 21 15 22 16 4 17 11 18 5 19 9 20 6 21 8 22 10 23 7 24
 H PARENT 3 4

>  <TORSDO>
F 3

$$$$
