ref_redock.pdbqt
 OpenBabel08302600563D

 24 26  0  0  1  0  0  0  0  0999 V2000
    6.9310   30.0090   60.5260 C   0  0  0  0  0  0  0  0  0  0  0  0
    6.0140   29.0760   60.4010 N   0  0  0  0  0  0  0  0  0  0  0  0
    7.6270   30.1470   61.5090 O   0  0  0  0  0  0  0  0  0  0  0  0
    5.5430   29.0370   59.5370 H   0  0  0  0  0  0  0  0  0  0  0  0
    7.0790   30.9700   59.3480 C   0  0  2  0  0  3  0  0  0  0  0  0
    8.0410   32.9930   60.1920 N   0  0  0  0  0  0  0  0  0  0  0  0
    6.7260   33.2340   60.3100 C   0  0  0  0  0  0  0  0  0  0  0  0
    8.3660   31.7790   59.4440 C   0  0  0  0  0  2  0  0  0  0  0  0
    6.0500   32.0970   59.5560 C   0  0  0  0  0  2  0  0  0  0  0  0
    6.1820   34.1540   60.8580 O   0  0  0  0  0  0  0  0  0  0  0  0
    8.9870   33.8780   60.8260 C   0  0  0  0  0  3  0  0  0  0  0  0
   11.1640   33.8930   62.1870 C   0  0  0  0  0  2  0  0  0  0  0  0
   11.7570   34.9360   61.2210 C   0  0  0  0  0  2  0  0  0  0  0  0
   10.0770   33.0430   61.5160 C   0  0  0  0  0  2  0  0  0  0  0  0
   10.6730   35.7500   60.5360 C   0  0  0  0  0  2  0  0  0  0  0  0
    9.6070   34.8660   59.8470 C   0  0  0  0  0  2  0  0  0  0  0  0
    5.6310   28.1220   61.3700 C   0  0  0  0  0  0  0  0  0  0  0  0
    5.4370   28.5880   62.7090 C   0  0  0  0  0  3  0  0  0  0  0  0
    5.5160   26.7590   61.1180 C   0  0  0  0  0  3  0  0  0  0  0  0
    5.1090   27.6590   63.6940 C   0  0  0  0  0  0  0  0  0  0  0  0
    5.2050   25.8530   62.1130 C   0  0  0  0  0  0  0  0  0  0  0  0
    4.9790   26.2840   63.4160 C   0  0  0  0  0  3  0  0  0  0  0  0
    4.8280   28.2350   65.3460 Cl  0  0  0  0  0  0  0  0  0  0  0  0
    5.0680   24.1550   61.6710 Cl  0  0  0  0  0  0  0  0  0  0  0  0
  1  3  2  0  0  0  0
  2  1  1  0  0  0  0
  2 17  1  0  0  0  0
  4  2  1  0  0  0  0
  5  8  1  0  0  0  0
  5  9  1  0  0  0  0
  5  1  1  1  0  0  0
  6  7  1  0  0  0  0
  6 11  1  0  0  0  0
  7 10  2  0  0  0  0
  8  6  1  0  0  0  0
  9  7  1  0  0  0  0
 11 14  1  0  0  0  0
 13 12  1  0  0  0  0
 14 12  1  0  0  0  0
 15 13  1  0  0  0  0
 16 15  1  0  0  0  0
 16 11  1  0  0  0  0
 17 18  1  0  0  0  0
 18 20  2  0  0  0  0
 19 17  2  0  0  0  0
 19 21  1  0  0  0  0
 20 23  1  0  0  0  0
 21 22  2  0  0  0  0
 22 20  1  0  0  0  0
 24 21  1  0  0  0  0
M  END
>  <MODEL>
10

>  <REMARK>
 VINA RESULT:    -8.392      3.892      7.320
 INTER + INTRA:          -9.990
 INTER:                  -9.669
 INTRA:                  -0.321
 UNBOUND:                -0.126
 SMILES O=C(Nc1cc(Cl)cc(Cl)c1)[C@H]1CC(=O)N(C2CCCCC2)C1
 SMILES IDX 2 1 3 2 1 3 12 5 16 6 14 7 23 8 13 9 15 10 17 11 19 12 20 13
 SMILES IDX 18 14 21 15 22 16 4 17 11 18 5 19 9 20 6 21 8 22 10 23 7 24
 H PARENT 3 4

>  <TORSDO>
F 3

$$$$
