ref_redock.pdbqt
 OpenBabel08302600563D

 24 26  0  0  1  0  0  0  0  0999 V2000
    6.1200   32.0380   60.3390 C   0  0  0  0  0  0  0  0  0  0  0  0
    7.3660   32.0600   59.9210 N   0  0  0  0  0  0  0  0  0  0  0  0
    5.7330   32.5970   61.3430 O   0  0  0  0  0  0  0  0  0  0  0  0
    7.5510   31.6050   59.0680 H   0  0  0  0  0  0  0  0  0  0  0  0
    5.1390   31.2310   59.4900 C   0  0  2  0  0  3  0  0  0  0  0  0
    5.7080   28.9200   59.7440 N   0  0  0  0  0  0  0  0  0  0  0  0
    6.4410   29.2770   58.6780 C   0  0  0  0  0  0  0  0  0  0  0  0
    4.7440   29.9310   60.1770 C   0  0  0  0  0  2  0  0  0  0  0  0
    5.9370   30.6630   58.3010 C   0  0  0  0  0  2  0  0  0  0  0  0
    7.2900   28.6450   58.1110 O   0  0  0  0  0  0  0  0  0  0  0  0
    5.9510   27.6500   60.3830 C   0  0  0  0  0  3  0  0  0  0  0  0
    6.8810   26.5990   62.5320 C   0  0  0  0  0  2  0  0  0  0  0  0
    5.6160   25.7290   62.6510 C   0  0  0  0  0  2  0  0  0  0  0  0
    6.6180   27.8900   61.7460 C   0  0  0  0  0  2  0  0  0  0  0  0
    4.9570   25.5060   61.3010 C   0  0  0  0  0  2  0  0  0  0  0  0
    4.6820   26.8260   60.5440 C   0  0  0  0  0  2  0  0  0  0  0  0
    8.4710   32.6640   60.5630 C   0  0  0  0  0  0  0  0  0  0  0  0
    8.8700   33.9590   60.1020 C   0  0  0  0  0  3  0  0  0  0  0  0
    9.2340   32.0440   61.5470 C   0  0  0  0  0  3  0  0  0  0  0  0
    9.9870   34.5540   60.6830 C   0  0  0  0  0  0  0  0  0  0  0  0
   10.3470   32.6480   62.0980 C   0  0  0  0  0  0  0  0  0  0  0  0
   10.7380   33.9180   61.6920 C   0  0  0  0  0  3  0  0  0  0  0  0
   10.4640   36.1740   60.1450 Cl  0  0  0  0  0  0  0  0  0  0  0  0
   11.2240   31.7740   63.3490 Cl  0  0  0  0  0  0  0  0  0  0  0  0
  1  3  2  0  0  0  0
  2  1  1  0  0  0  0
  2 17  1  0  0  0  0
  4  2  1  0  0  0  0
  5  8  1  0  0  0  0
  5  1  1  1  0  0  0
  6  8  1  0  0  0  0
  6 11  1  0  0  0  0
  7  6  1  0  0  0  0
  9  7  1  0  0  0  0
  9  5  1  0  0  0  0
 10  7  2  0  0  0  0
 11 16  1  0  0  0  0
 11 14  1  0  0  0  0
 12 13  1  0  0  0  0
 14 12  1  0  0  0  0
 15 13  1  0  0  0  0
 16 15  1  0  0  0  0
 17 19  1  0  0  0  0
 18 17  2  0  0  0  0
 18 20  1  0  0  0  0
 19 21  2  0  0  0  0
 20 22  2  0  0  0  0
 21 24  1  0  0  0  0
 22 21  1  0  0  0  0
 23 20  1  0  0  0  0
M  END
>  <MODEL>
8

>  <REMARK>
 VINA RESULT:    -8.531      3.166      4.691
 INTER + INTRA:         -10.154
 INTER:                  -9.441
 INTRA:                  -0.713
 UNBOUND:                -0.126
 SMILES O=C(Nc1cc(Cl)cc(Cl)c1)[C@H]1CC(=O)N(C2CCCCC2)C1
 SMILES IDX 2 1 3 2 1 3 12 5 16 6 14 7 23 8 13 9 15 10 17 11 19 12 20 13
 SMILES IDX 18 14 21 15 22 16 4 17 11 18 5 19 9 20 6 21 8 22 10 23 7 24
 H PARENT 3 4

>  <TORSDO>
F 3

$$$$
