ref_redock.pdbqt
 OpenBabel08302600563D

 24 26  0  0  1  0  0  0  0  0999 V2000
    9.7650   33.5170   61.3200 C   0  0  0  0  0  0  0  0  0  0  0  0
   10.8490   34.0760   61.8100 N   0  0  0  0  0  0  0  0  0  0  0  0
    9.5120   32.3340   61.4130 O   0  0  0  0  0  0  0  0  0  0  0  0
   10.9220   35.0520   61.7110 H   0  0  0  0  0  0  0  0  0  0  0  0
    8.8040   34.4450   60.5790 C   0  0  2  0  0  3  0  0  0  0  0  0
    7.5190   33.0930   59.0790 N   0  0  0  0  0  0  0  0  0  0  0  0
    8.5630   33.4500   58.3140 C   0  0  0  0  0  0  0  0  0  0  0  0
    7.4470   33.7890   60.3630 C   0  0  0  0  0  2  0  0  0  0  0  0
    9.2900   34.5190   59.1190 C   0  0  0  0  0  2  0  0  0  0  0  0
    8.8580   33.0520   57.2210 O   0  0  0  0  0  0  0  0  0  0  0  0
    6.6220   32.0610   58.6210 C   0  0  0  0  0  3  0  0  0  0  0  0
    6.1970   29.5320   58.7430 C   0  0  0  0  0  2  0  0  0  0  0  0
    4.7270   29.8000   59.1160 C   0  0  0  0  0  2  0  0  0  0  0  0
    7.1110   30.6990   59.1380 C   0  0  0  0  0  2  0  0  0  0  0  0
    4.2550   31.1520   58.6100 C   0  0  0  0  0  2  0  0  0  0  0  0
    5.1820   32.3110   59.0460 C   0  0  0  0  0  2  0  0  0  0  0  0
   11.9210   33.4290   62.4650 C   0  0  0  0  0  0  0  0  0  0  0  0
   13.1290   34.1760   62.6430 C   0  0  0  0  0  3  0  0  0  0  0  0
   11.8990   32.0970   62.8640 C   0  0  0  0  0  3  0  0  0  0  0  0
   14.2170   33.5440   63.2390 C   0  0  0  0  0  0  0  0  0  0  0  0
   12.9960   31.4860   63.4390 C   0  0  0  0  0  0  0  0  0  0  0  0
   14.1710   32.1990   63.6540 C   0  0  0  0  0  3  0  0  0  0  0  0
   15.7030   34.4760   63.4990 Cl  0  0  0  0  0  0  0  0  0  0  0  0
   12.8440   29.8000   63.9200 Cl  0  0  0  0  0  0  0  0  0  0  0  0
  1  3  2  0  0  0  0
  1  2  1  0  0  0  0
  2 17  1  0  0  0  0
  4  2  1  0  0  0  0
  5  1  1  1  0  0  0
  6  8  1  0  0  0  0
  7  6  1  0  0  0  0
  7  9  1  0  0  0  0
  8  5  1  0  0  0  0
  9  5  1  0  0  0  0
 10  7  2  0  0  0  0
 11 16  1  0  0  0  0
 11  6  1  0  0  0  0
 11 14  1  0  0  0  0
 12 13  1  0  0  0  0
 12 14  1  0  0  0  0
 15 16  1  0  0  0  0
 15 13  1  0  0  0  0
 17 18  2  0  0  0  0
 17 19  1  0  0  0  0
 18 20  1  0  0  0  0
 19 21  2  0  0  0  0
 20 23  1  0  0  0  0
 20 22  2  0  0  0  0
 21 22  1  0  0  0  0
 21 24  1  0  0  0  0
M  END
>  <MODEL>
1

>  <REMARK>
 VINA RESULT:    -9.782      0.000      0.000
 INTER + INTRA:         -11.624
 INTER:                 -11.498
 INTRA:                  -0.126
 UNBOUND:                -0.126
 SMILES O=C(Nc1cc(Cl)cc(Cl)c1)[C@H]1CC(=O)N(C2CCCCC2)C1
 SMILES IDX 2 1 3 2 1 3 12 5 16 6 14 7 23 8 13 9 15 10 17 11 19 12 20 13
 SMILES IDX 18 14 21 15 22 16 4 17 11 18 5 19 9 20 6 21 8 22 10 23 7 24
 H PARENT 3 4

>  <TORSDO>
F 3

$$$$
