ref_redock.pdbqt
 OpenBabel08302600563D

 24 26  0  0  1  0  0  0  0  0999 V2000
    3.4310   29.0070   59.3530 C   0  0  0  0  0  0  0  0  0  0  0  0
    2.6860   28.3000   60.1740 N   0  0  0  0  0  0  0  0  0  0  0  0
    3.1020   30.0800   58.8940 O   0  0  0  0  0  0  0  0  0  0  0  0
    3.0800   27.4650   60.5140 H   0  0  0  0  0  0  0  0  0  0  0  0
    4.7740   28.3920   58.9640 C   0  0  2  0  0  3  0  0  0  0  0  0
    6.0030   28.0220   60.9840 N   0  0  0  0  0  0  0  0  0  0  0  0
    6.3920   29.2590   60.6390 C   0  0  0  0  0  0  0  0  0  0  0  0
    5.2150   27.3320   59.9640 C   0  0  0  0  0  2  0  0  0  0  0  0
    5.8510   29.4620   59.2310 C   0  0  0  0  0  2  0  0  0  0  0  0
    7.0500   30.0390   61.2730 O   0  0  0  0  0  0  0  0  0  0  0  0
    6.3310   27.5120   62.2930 C   0  0  0  0  0  3  0  0  0  0  0  0
    5.5920   27.5880   64.7500 C   0  0  0  0  0  2  0  0  0  0  0  0
    5.6320   26.0500   64.8070 C   0  0  0  0  0  2  0  0  0  0  0  0
    5.3580   28.1040   63.3240 C   0  0  0  0  0  2  0  0  0  0  0  0
    6.5880   25.4720   63.7780 C   0  0  0  0  0  2  0  0  0  0  0  0
    6.3110   25.9910   62.3470 C   0  0  0  0  0  2  0  0  0  0  0  0
    1.3820   28.6080   60.6200 C   0  0  0  0  0  0  0  0  0  0  0  0
    0.2880   28.1450   59.8220 C   0  0  0  0  0  3  0  0  0  0  0  0
    1.1050   29.3980   61.7310 C   0  0  0  0  0  3  0  0  0  0  0  0
   -1.0070   28.4790   60.2120 C   0  0  0  0  0  0  0  0  0  0  0  0
   -0.1870   29.7300   62.0910 C   0  0  0  0  0  0  0  0  0  0  0  0
   -1.2680   29.2660   61.3520 C   0  0  0  0  0  3  0  0  0  0  0  0
   -2.3670   27.8750   59.2500 Cl  0  0  0  0  0  0  0  0  0  0  0  0
   -0.4140   30.7210   63.5270 Cl  0  0  0  0  0  0  0  0  0  0  0  0
  1  2  1  0  0  0  0
  2  4  1  0  0  0  0
  2 17  1  0  0  0  0
  3  1  2  0  0  0  0
  5  9  1  0  0  0  0
  5  1  1  1  0  0  0
  5  8  1  0  0  0  0
  6 11  1  0  0  0  0
  7  6  1  0  0  0  0
  7 10  2  0  0  0  0
  8  6  1  0  0  0  0
  9  7  1  0  0  0  0
 11 16  1  0  0  0  0
 11 14  1  0  0  0  0
 12 13  1  0  0  0  0
 14 12  1  0  0  0  0
 15 13  1  0  0  0  0
 16 15  1  0  0  0  0
 17 19  1  0  0  0  0
 18 20  1  0  0  0  0
 18 17  2  0  0  0  0
 19 21  2  0  0  0  0
 20 22  2  0  0  0  0
 21 24  1  0  0  0  0
 22 21  1  0  0  0  0
 23 20  1  0  0  0  0
M  END
>  <MODEL>
20

>  <REMARK>
 VINA RESULT:    -7.525      7.057     10.316
 INTER + INTRA:          -8.970
 INTER:                  -8.128
 INTRA:                  -0.842
 UNBOUND:                -0.126
 SMILES O=C(Nc1cc(Cl)cc(Cl)c1)[C@H]1CC(=O)N(C2CCCCC2)C1
 SMILES IDX 2 1 3 2 1 3 12 5 16 6 14 7 23 8 13 9 15 10 17 11 19 12 20 13
 SMILES IDX 18 14 21 15 22 16 4 17 11 18 5 19 9 20 6 21 8 22 10 23 7 24
 H PARENT 3 4

>  <TORSDO>
F 3

$$$$
