ref_redock.pdbqt
 OpenBabel08302600563D

 24 26  0  0  1  0  0  0  0  0999 V2000
    6.4530   32.7570   59.4880 C   0  0  0  0  0  0  0  0  0  0  0  0
    7.7570   32.6540   59.3590 N   0  0  0  0  0  0  0  0  0  0  0  0
    5.9060   33.3110   60.4180 O   0  0  0  0  0  0  0  0  0  0  0  0
    8.0830   32.2210   58.5380 H   0  0  0  0  0  0  0  0  0  0  0  0
    5.6140   32.1080   58.3890 C   0  0  2  0  0  3  0  0  0  0  0  0
    5.3300   29.8040   58.9750 N   0  0  0  0  0  0  0  0  0  0  0  0
    6.4490   29.7720   58.2330 C   0  0  0  0  0  0  0  0  0  0  0  0
    4.6350   31.0900   58.9610 C   0  0  0  0  0  2  0  0  0  0  0  0
    6.5480   31.1590   57.6140 C   0  0  0  0  0  2  0  0  0  0  0  0
    7.2020   28.8540   58.0580 O   0  0  0  0  0  0  0  0  0  0  0  0
    4.9470   28.6400   59.7340 C   0  0  0  0  0  3  0  0  0  0  0  0
    4.7760   27.7400   62.1320 C   0  0  0  0  0  2  0  0  0  0  0  0
    3.3300   27.2880   61.8570 C   0  0  0  0  0  2  0  0  0  0  0  0
    5.1960   28.9050   61.2270 C   0  0  0  0  0  2  0  0  0  0  0  0
    3.0900   27.0370   60.3780 C   0  0  0  0  0  2  0  0  0  0  0  0
    3.4980   28.2390   59.4950 C   0  0  0  0  0  2  0  0  0  0  0  0
    8.7410   33.0980   60.2710 C   0  0  0  0  0  0  0  0  0  0  0  0
    9.2020   34.4470   60.1350 C   0  0  0  0  0  3  0  0  0  0  0  0
    9.3420   32.2840   61.2250 C   0  0  0  0  0  3  0  0  0  0  0  0
   10.2080   34.8930   60.9870 C   0  0  0  0  0  0  0  0  0  0  0  0
   10.3500   32.7440   62.0500 C   0  0  0  0  0  0  0  0  0  0  0  0
   10.7930   34.0590   61.9610 C   0  0  0  0  0  3  0  0  0  0  0  0
   10.7550   36.5730   60.8510 Cl  0  0  0  0  0  0  0  0  0  0  0  0
   11.0220   31.6270   63.2330 Cl  0  0  0  0  0  0  0  0  0  0  0  0
  1  3  2  0  0  0  0
  2  1  1  0  0  0  0
  2 17  1  0  0  0  0
  4  2  1  0  0  0  0
  5  8  1  0  0  0  0
  5  1  1  1  0  0  0
  6 11  1  0  0  0  0
  7  6  1  0  0  0  0
  8  6  1  0  0  0  0
  9  7  1  0  0  0  0
  9  5  1  0  0  0  0
 10  7  2  0  0  0  0
 11 14  1  0  0  0  0
 13 12  1  0  0  0  0
 14 12  1  0  0  0  0
 15 13  1  0  0  0  0
 16 11  1  0  0  0  0
 16 15  1  0  0  0  0
 17 19  1  0  0  0  0
 18 17  2  0  0  0  0
 18 20  1  0  0  0  0
 19 21  2  0  0  0  0
 20 22  2  0  0  0  0
 21 24  1  0  0  0  0
 22 21  1  0  0  0  0
 23 20  1  0  0  0  0
M  END
>  <MODEL>
6

>  <REMARK>
 VINA RESULT:    -8.704      2.647      4.179
 INTER + INTRA:         -10.357
 INTER:                  -9.546
 INTRA:                  -0.811
 UNBOUND:                -0.126
 SMILES O=C(Nc1cc(Cl)cc(Cl)c1)[C@H]1CC(=O)N(C2CCCCC2)C1
 SMILES IDX 2 1 3 2 1 3 12 5 16 6 14 7 23 8 13 9 15 10 17 11 19 12 20 13
 SMILES IDX 18 14 21 15 22 16 4 17 11 18 5 19 9 20 6 21 8 22 10 23 7 24
 H PARENT 3 4

>  <TORSDO>
F 3

$$$$
