ref_redock.pdbqt
 OpenBabel08302600563D

 24 26  0  0  1  0  0  0  0  0999 V2000
    3.6110   29.1500   59.3330 C   0  0  0  0  0  0  0  0  0  0  0  0
    2.8210   28.4100   60.0780 N   0  0  0  0  0  0  0  0  0  0  0  0
    3.3000   30.2340   58.8860 O   0  0  0  0  0  0  0  0  0  0  0  0
    3.2010   27.5680   60.4180 H   0  0  0  0  0  0  0  0  0  0  0  0
    4.9840   28.5620   59.0160 C   0  0  2  0  0  3  0  0  0  0  0  0
    6.0920   28.1690   61.1010 N   0  0  0  0  0  0  0  0  0  0  0  0
    6.4820   29.4180   60.8040 C   0  0  0  0  0  0  0  0  0  0  0  0
    5.3780   27.4880   60.0220 C   0  0  0  0  0  2  0  0  0  0  0  0
    6.0260   29.6410   59.3690 C   0  0  0  0  0  2  0  0  0  0  0  0
    7.0880   30.1940   61.4920 O   0  0  0  0  0  0  0  0  0  0  0  0
    6.3450   27.6380   62.4180 C   0  0  0  0  0  3  0  0  0  0  0  0
    5.4810   27.6900   64.8340 C   0  0  0  0  0  2  0  0  0  0  0  0
    5.5010   26.1510   64.8720 C   0  0  0  0  0  2  0  0  0  0  0  0
    5.3270   28.2270   63.4060 C   0  0  0  0  0  2  0  0  0  0  0  0
    6.5040   25.5770   63.8860 C   0  0  0  0  0  2  0  0  0  0  0  0
    6.3060   26.1170   62.4500 C   0  0  0  0  0  2  0  0  0  0  0  0
    1.4850   28.6910   60.4450 C   0  0  0  0  0  0  0  0  0  0  0  0
    1.2780   29.4270   61.6540 C   0  0  0  0  0  3  0  0  0  0  0  0
    0.3730   28.2240   59.7520 C   0  0  0  0  0  3  0  0  0  0  0  0
   -0.0300   29.6730   62.0650 C   0  0  0  0  0  0  0  0  0  0  0  0
   -0.9150   28.4670   60.1860 C   0  0  0  0  0  0  0  0  0  0  0  0
   -1.1450   29.2080   61.3400 C   0  0  0  0  0  3  0  0  0  0  0  0
   -0.2950   30.6190   63.5400 Cl  0  0  0  0  0  0  0  0  0  0  0  0
   -2.2440   27.8420   59.2160 Cl  0  0  0  0  0  0  0  0  0  0  0  0
  1  2  1  0  0  0  0
  2  4  1  0  0  0  0
  2 17  1  0  0  0  0
  3  1  2  0  0  0  0
  5  1  1  1  0  0  0
  5  9  1  0  0  0  0
  5  8  1  0  0  0  0
  6 11  1  0  0  0  0
  7  6  1  0  0  0  0
  7 10  2  0  0  0  0
  8  6  1  0  0  0  0
  9  7  1  0  0  0  0
 11 16  1  0  0  0  0
 11 14  1  0  0  0  0
 12 13  1  0  0  0  0
 14 12  1  0  0  0  0
 15 13  1  0  0  0  0
 16 15  1  0  0  0  0
 17 18  1  0  0  0  0
 18 20  2  0  0  0  0
 19 21  1  0  0  0  0
 19 17  2  0  0  0  0
 20 23  1  0  0  0  0
 21 22  2  0  0  0  0
 22 20  1  0  0  0  0
 24 21  1  0  0  0  0
M  END
>  <MODEL>
19

>  <REMARK>
 VINA RESULT:    -7.575      6.925     10.118
 INTER + INTRA:          -9.030
 INTER:                  -8.185
 INTRA:                  -0.845
 UNBOUND:                -0.126
 SMILES O=C(Nc1cc(Cl)cc(Cl)c1)[C@H]1CC(=O)N(C2CCCCC2)C1
 SMILES IDX 2 1 3 2 1 3 12 5 16 6 14 7 23 8 13 9 15 10 17 11 19 12 20 13
 SMILES IDX 18 14 21 15 22 16 4 17 11 18 5 19 9 20 6 21 8 22 10 23 7 24
 H PARENT 3 4

>  <TORSDO>
F 3

$$$$
