ref_redock.pdbqt
 OpenBabel08302600563D

 24 26  0  0  1  0  0  0  0  0999 V2000
    7.7930   32.8020   58.9440 C   0  0  0  0  0  0  0  0  0  0  0  0
    7.9950   32.9280   60.2360 N   0  0  0  0  0  0  0  0  0  0  0  0
    8.6330   33.0380   58.1010 O   0  0  0  0  0  0  0  0  0  0  0  0
    7.2500   32.6640   60.8240 H   0  0  0  0  0  0  0  0  0  0  0  0
    6.3970   32.3500   58.5200 C   0  0  2  0  0  3  0  0  0  0  0  0
    6.0200   30.1930   59.4860 N   0  0  0  0  0  0  0  0  0  0  0  0
    6.5560   29.8800   58.2960 C   0  0  0  0  0  0  0  0  0  0  0  0
    5.6850   31.6070   59.6420 C   0  0  0  0  0  2  0  0  0  0  0  0
    6.5840   31.1910   57.5220 C   0  0  0  0  0  2  0  0  0  0  0  0
    6.9120   28.8050   57.8960 O   0  0  0  0  0  0  0  0  0  0  0  0
    5.8720   29.1690   60.4900 C   0  0  0  0  0  3  0  0  0  0  0  0
    6.9340   28.2620   62.6440 C   0  0  0  0  0  2  0  0  0  0  0  0
    5.5550   28.2820   63.3300 C   0  0  0  0  0  2  0  0  0  0  0  0
    7.0220   29.2820   61.5020 C   0  0  0  0  0  2  0  0  0  0  0  0
    4.4230   28.1800   62.3220 C   0  0  0  0  0  2  0  0  0  0  0  0
    4.5260   29.2370   61.1980 C   0  0  0  0  0  2  0  0  0  0  0  0
    9.1630   33.4000   60.8750 C   0  0  0  0  0  0  0  0  0  0  0  0
    9.9510   32.4440   61.5940 C   0  0  0  0  0  3  0  0  0  0  0  0
    9.5410   34.7380   60.9170 C   0  0  0  0  0  3  0  0  0  0  0  0
   11.0790   32.8930   62.2750 C   0  0  0  0  0  0  0  0  0  0  0  0
   10.6570   35.1630   61.6120 C   0  0  0  0  0  0  0  0  0  0  0  0
   11.4570   34.2510   62.2900 C   0  0  0  0  0  3  0  0  0  0  0  0
   12.0810   31.7100   63.1330 Cl  0  0  0  0  0  0  0  0  0  0  0  0
   11.0460   36.8780   61.5770 Cl  0  0  0  0  0  0  0  0  0  0  0  0
  1  2  1  0  0  0  0
  2  4  1  0  0  0  0
  2 17  1  0  0  0  0
  3  1  2  0  0  0  0
  5  1  1  1  0  0  0
  5  8  1  0  0  0  0
  6  8  1  0  0  0  0
  6 11  1  0  0  0  0
  7  6  1  0  0  0  0
  9  7  1  0  0  0  0
  9  5  1  0  0  0  0
 10  7  2  0  0  0  0
 11 16  1  0  0  0  0
 11 14  1  0  0  0  0
 12 13  1  0  0  0  0
 14 12  1  0  0  0  0
 15 13  1  0  0  0  0
 16 15  1  0  0  0  0
 17 19  2  0  0  0  0
 17 18  1  0  0  0  0
 18 20  2  0  0  0  0
 19 21  1  0  0  0  0
 20 22  1  0  0  0  0
 20 23  1  0  0  0  0
 21 22  2  0  0  0  0
 24 21  1  0  0  0  0
M  END
>  <MODEL>
3

>  <REMARK>
 VINA RESULT:    -9.096      2.566      4.120
 INTER + INTRA:         -10.817
 INTER:                  -9.873
 INTRA:                  -0.945
 UNBOUND:                -0.126
 SMILES O=C(Nc1cc(Cl)cc(Cl)c1)[C@H]1CC(=O)N(C2CCCCC2)C1
 SMILES IDX 2 1 3 2 1 3 12 5 16 6 14 7 23 8 13 9 15 10 17 11 19 12 20 13
 SMILES IDX 18 14 21 15 22 16 4 17 11 18 5 19 9 20 6 21 8 22 10 23 7 24
 H PARENT 3 4

>  <TORSDO>
F 3

$$$$
